[General]
network = Network
output-scalar-file = ${resultdir}/sca/${iterationvars}/${repetition}.sca
repeat = 100
sim-time-limit = 2s
*.serversCount = ${N=3..15 step 2}
