[General]
network = Network
sim-time-limit = 5s
repeat = 10
